data/AfterDynamicSim_sps_138.m
function mpc = AfterDynamicSim_sps_138
%AFTERDYNAMICSIM_SPS_138

%% MATPOWER Case Format : Version 2
mpc.version = '2';

%%-----  Power Flow Data  -----%%
%% system MVA base
mpc.baseMVA = 100;

%% bus data
%	bus_i	type	Pd	Qd	Gs	Bs	area	Vm	Va	baseKV	zone	Vmax	Vmin
mpc.bus = [
	1	1	89.5570149	48.7570144	0	0	1	1.02361	156.3188	115	1	1.1	0.9;
	2	1	55.7865078	14.943225	0	0	1	1.03145	158.5695	115	1	1.1	0.9;
	3	1	19.802764	0	0	0	1	0.9874	156.5273	230	1	1.1	0.9;
	4	1	0	0	0	0	1	1.02422	155.481	345	1	1.1	0.9;
	5	1	350.977916	129.251934	0	0	1	1.01361	155.0159	115	1	1.1	0.9;
	6	1	119.305341	40.7616402	0	0	1	1.02562	157.6133	115	1	1.1	0.9;
	7	1	0	0	0	0	1	0.98338	155.8798	230	1	1.1	0.9;
	8	1	58.0678861	14.0159309	0	0	1	1.01464	153.8937	115	1	1.1	0.9;
	9	1	95.6581305	42.8459338	0	0	1	0.99975	153.4932	115	1	1.1	0.9;
	10	1	147.383326	32.8616229	0	0	1	1.01589	151.8281	230	1	1.1	0.9;
	11	1	82.8638611	20.9648276	0	0	1	1.00367	153.4011	115	1	1.1	0.9;
	12	1	0	0	0	0	1	0.99124	155.4409	230	1	1.1	0.9;
	13	1	57.8589154	9.97536742	0	0	1	0.99478	150.3611	115	1	1.1	0.9;
	14	1	161.140546	60.4274529	0	0	1	1.00205	148.1915	115	1	1.1	0.9;
	15	1	127.521823	23.1484261	0	0	1	1.03714	145.9271	115	1	1.1	0.9;
	16	1	0	0	0	0	1	1.03687	151.4769	345	1	1.1	0.9;
	17	1	563.733561	221.06559	0	0	1	1.06695	141.9805	115	1	1.1	0.9;
	19	1	0	0	0	0	1	0.97939	152.1973	230	1	1.1	0.9;
	20	1	593.141147	119.621921	0	0	1	0.99725	148.4261	115	1	1.1	0.9;
	21	1	76.7834757	0.997760865	0	0	1	0.97155	152.4359	230	1	1.1	0.9;
	22	1	80.7733958	22.9343506	0	0	1	0.99301	149.0611	115	1	1.1	0.9;
	23	1	20.9922689	6.99744024	0	0	1	1.04941	155.4464	115	1	1.1	0.9;
	24	1	0	0	0	0	1	1.00384	157.4345	230	1	1.1	0.9;
	25	1	44.9543362	11.9879713	0	0	1	1.0221	152.8938	115	1	1.1	0.9;
	26	1	27.9445199	8.98195446	0	0	1	0.99645	149.6135	115	1	1.1	0.9;
	27	1	68.825627	12.9676496	0	0	1	0.9722	146.2622	115	1	1.1	0.9;
	33	1	55.2172568	6.0241398	0	0	1	1.02766	146.0162	115	1	1.1	0.9;
	34	1	0	0	0	0	1	1.04943	149.8567	345	1	1.1	0.9;
	35	1	0	0	0	0	1	0.99481	139.3549	115	1	1.1	0.9;
	36	1	0	0	0	0	1	1.0202	142.1715	230	1	1.1	0.9;
	37	1	85.0220699	32.0068051	0	0	1	1.02032	146.7486	115	1	1.1	0.9;
	38	1	155.537391	18.0621421	0	0	1	1.02317	145.545	115	1	1.1	0.9;
	39	1	0	0	0	0	1	1.06058	152.0149	345	1	1.1	0.9;
	40	1	46.140241	-21.0634537	0	0	1	1.02405	145.2564	115	1	1.1	0.9;
	41	1	86.2237351	0	0	0	1	1.0313	147.5644	115	1	1.1	0.9;
	42	1	0	0	0	0	1	1.05343	150.3125	345	1	1.1	0.9;
	43	1	39.400154	9.09273102	0	0	1	1.0103	142.2545	115	1	1.1	0.9;
	44	1	197.947144	29.4372718	0	0	1	1.02385	142.4494	115	1	1.1	0.9;
	45	1	0	0	0	0	1	1.03914	145.2094	230	1	1.1	0.9;
	46	1	0	0	0	0	1	1.04965	147.9594	345	1	1.1	0.9;
	47	1	58.7795012	11.9588291	0	0	1	0.9965	138.0947	115	1	1.1	0.9;
	48	1	41.1520783	19.070941	0	0	1	1.00517	142.0586	115	1	1.1	0.9;
	49	1	90.0258472	25.4414586	0	0	1	1.03249	156.1772	115	1	1.1	0.9;
	51	1	-4.96533035	4.96533035	0	0	1	1.02076	150.391	115	1	1.1	0.9;
	52	1	60.9783973	27.9888572	0	0	1	0.99876	146.7373	115	1	1.1	0.9;
	53	1	69.7118267	3.03064362	0	0	1	1.0059	141.5219	115	1	1.1	0.9;
	54	1	10.1048889	1.01120773	0	0	1	1.0156	143.0061	115	1	1.1	0.9;
	55	1	22.0909065	10.0419792	0	0	1	1.01975	146.4388	115	1	1.1	0.9;
	57	1	98.2265586	20.046164	0	0	1	1.03564	149.4131	115	1	1.1	0.9;
	58	1	13.9907143	0.998633119	0	0	1	0.99118	150.4391	115	1	1.1	0.9;
	59	1	217.824946	105.911566	0	0	1	0.9782	150.8325	115	1	1.1	0.9;
	60	1	0	0	0	0	1	1.04045	148.2702	230	1	1.1	0.9;
	61	1	226.884765	109.94129	0	0	1	0.99034	152.5043	115	1	1.1	0.9;
	62	1	0	0	0	0	1	1.01923	153.4133	230	1	1.1	0.9;
	63	1	70.1910965	30.0812347	0	0	1	0.96002	137.5832	115	1	1.1	0.9;
	64	1	0	0	0	0	1	0.95102	142.0549	230	1	1.1	0.9;
	69	1	0	0	0	0	1	1.0093	140.1823	115	1	1.1	0.9;
	70	1	56.6960437	20.2482907	0	0	1	1.02954	129.6788	115	1	1.1	0.9;
	71	1	117.417938	38.4632468	0	150.01	1	1.05428	134.2813	115	1	1.1	0.9;
	72	1	57.5070436	19.1690145	0	0	1	1.00007	137.549	115	1	1.1	0.9;
	73	1	226.450808	71.7745379	0	0	1	1.0038	138.2936	115	1	1.1	0.9;
	74	1	0	0	0	0	1	1.02012	141.4508	230	1	1.1	0.9;
	76	1	209.803325	107.92465	0	0	1	0.98109	138.5221	115	1	1.1	0.9;
	77	1	74.5214891	28.1964264	0	0	1	1.00098	140.4472	115	1	1.1	0.9;
	78	1	0	0	0	0	1	1.00597	141.3668	115	1	1.1	0.9;
	79	1	48.3458618	14.1012522	0	0	1	1.003	140.2416	115	1	1.1	0.9;
	80	1	28.1025449	7.02588604	0	0	1	0.99961	141.434	115	1	1.1	0.9;
	81	1	0	0	0	0	1	1.04674	146.3894	345	1	1.1	0.9;
	84	1	36.9983011	12.9991538	0	0	1	1.02486	148.6593	115	1	1.1	0.9;
	85	1	0	0	0	0	1	0.99101	139.4284	230	1	1.1	0.9;
	86	1	0	0	0	0	1	0.99501	141.9653	230	1	1.1	0.9;
	87	1	0	0	0	0	1	0.99627	146.1822	230	1	1.1	0.9;
	88	1	0	0	0	0	1	1.03345	143.641	230	1	1.1	0.9;
	89	1	44.3067429	0	0	0	1	1.03288	145.1706	115	1	1.1	0.9;
	90	1	66.0375879	0	0	0	1	1.02738	146.156	115	1	1.1	0.9;
	91	1	17.4178224	0	0	0	1	1.05268	146.9872	115	1	1.1	0.9;
	92	1	15.7994775	0	0	0	1	1.05192	151.7698	115	1	1.1	0.9;
	94	1	60.4291445	0	0	0	1	0.99342	145.0335	115	1	1.1	0.9;
	97	1	39.9696987	0	0	0	1	1.01929	143.3708	115	1	1.1	0.9;
	98	1	66.6879951	0	0	0	1	0.99989	142.0932	115	1	1.1	0.9;
	99	1	83.6105032	0	0	0	1	0.99034	137.5303	115	1	1.1	0.9;
	100	1	0	0	0	0	1	1.00664	142.157	115	1	1.1	0.9;
	102	1	77.9119799	0	0	0	1	1.0015	141.3095	115	1	1.1	0.9;
	103	1	32.0642395	0	0	0	1	1.03024	145.5191	115	1	1.1	0.9;
	104	1	8.62077772	0	0	0	1	0.99721	139.6409	115	1	1.1	0.9;
	105	1	49.6991636	0	0	0	1	1.02396	144.9423	115	1	1.1	0.9;
	107	1	4.61062228	0	0	0	1	1.01154	141.9637	115	1	1.1	0.9;
	108	1	112.221674	0	0	0	1	0.9907	137.5506	115	1	1.1	0.9;
	109	1	30.7589601	0	0	0	1	0.98132	133.739	115	1	1.1	0.9;
	110	1	63.144657	0	0	0	1	0.97772	134.3577	115	1	1.1	0.9;
	112	1	19.4974948	0	0	0	1	0.97803	133.0242	115	1	1.1	0.9;
	113	1	26.4474785	0	0	0	1	0.98479	135.4799	115	1	1.1	0.9;
	114	1	18.0913806	0	0	0	1	0.98023	133.4001	115	1	1.1	0.9;
	115	4	0	0	0	0	2	1.05993	170.9438	115	2	1.1	0.9;
	116	1	0	0	0	0	2	1.00845	109.8161	115	2	1.1	0.9;
	117	4	0	0	0	500	2	1.06936	-178.8401	115	2	1.1	0.9;
	118	4	16.8245391	775.615018	0	0	2	1.05972	-178.8111	115	2	1.1	0.9;
	119	4	110.3442	37.8445289	0	0	2	1.11063	-177.893	115	2	1.1	0.9;
	120	4	-114.152919	45.8893585	0	150	2	1.13555	-174.6218	115	2	1.1	0.9;
	121	4	460.085655	47.2983022	0	0	2	1.05993	170.9438	115	2	1.1	0.9;
	122	1	166.556224	8.5786646	0	0	2	0.95256	106.0561	115	2	1.1	0.9;
	123	1	80.5415701	1.44534077	0	0	2	0.9744	106.5387	115	2	1.1	0.9;
	124	1	276.828271	59.3903979	0	0	2	0.99847	109.8161	115	2	1.1	0.9;
	125	1	521.03998	83.7004964	0	0	2	0.98045	109.6338	115	2	1.1	0.9;
	126	1	57.4335807	5.059033	0	200.01	2	0.9648	116.4345	115	2	1.1	0.9;
	127	1	360.923155	35.0682551	0	0	2	0.95648	123.73	230	2	1.1	0.9;
	128	1	0	0	0	0	2	0.96206	132.65	230	2	1.1	0.9;
	129	1	0	0	0	0	2	0.95748	132.8094	230	2	1.1	0.9;
	130	1	0	0	0	0	2	0.99126	150.8082	230	2	1.1	0.9;
	131	1	0	0	0	0	2	0.96863	154.5709	230	2	1.1	0.9;
	132	1	0	0	0	0	2	0.97073	147.1597	230	2	1.1	0.9;
	133	1	0	0	0	0	2	0.96993	131.016	230	2	1.1	0.9;
	134	1	0	0	0	0	2	0.99648	126.8647	230	2	1.1	0.9;
	135	1	163.639086	40.2321015	0	0	2	0.99869	128.4508	230	2	1.1	0.9;
	136	1	54.2821795	17.8968026	0	0	2	1.03894	137.2894	230	2	1.1	0.9;
	137	1	270.341153	98.6092956	0	0	2	1.03541	133.3224	230	2	1.1	0.9;
	138	1	819.75835	134.062015	0	0	2	1.04613	124.0976	230	2	1.1	0.9;
	139	1	591.768494	82.8449545	0	0	2	1.00703	133.4693	115	2	1.1	0.9;
	140	1	383.520961	113.46027	0	0	2	1.03346	133.0726	230	2	1.1	0.9;
	141	1	144.363361	57.7442363	0	0	2	1.04785	138.6724	230	2	1.1	0.9;
	142	1	55.7951487	24.1933823	0	0	2	1.00971	140.1386	230	2	1.1	0.9;
	143	1	89.5050026	35.5014301	0	0	2	1.04355	150.0005	230	2	1.1	0.9;
	144	1	0	0	0	0	2	1.01768	153.158	230	2	1.1	0.9;
	145	1	23.9174268	13.951241	0	0	2	1.0095	143.4847	230	2	1.1	0.9;
	146	1	0	0	0	0	2	1.05153	145.91	230	2	1.1	0.9;
	147	1	0	0	0	0	2	1.05264	149.6222	230	2	1.1	0.9;
	148	1	62.9658307	24.9868535	0	120.01	2	1.09784	145.7389	115	2	1.1	0.9;
	149	1	0	0	0	0	2	1.07267	150.5999	230	2	1.1	0.9;
	150	1	0	0	0	0	2	0.96814	154.7603	230	2	1.1	0.9;
	151	1	0	0	0	0	2	0.97965	149.1842	230	2	1.1	0.9;
	152	1	16.9905318	8.99472471	0	0	2	1.05668	145.5805	230	2	1.1	0.9;
	153	1	0	0	0	0	2	1.04562	147.0496	230	2	1.1	0.9;
	154	1	70.1377168	5.0098697	0	84.5	2	1.07141	133.2604	115	2	1.1	0.9;
	155	1	199.739349	49.9337964	0	0	2	1.01795	143.3135	230	2	1.1	0.9;
	156	1	75.3455609	50.2294581	0	0	2	0.96778	141.7542	115	2	1.1	0.9;
	157	1	127.963258	-25.1789689	0	0	2	0.95286	107.8345	230	2	1.1	0.9;
	158	1	0	0	0	0	2	0.97179	113.7499	230	2	1.1	0.9;
	159	4	0.00012439134	6.22006699e-05	0	0	2	1e-05	-52.0208	230	2	1.1	0.9;
	160	1	0	0	0	0	2	0.973	111.583	230	2	1.1	0.9;
	161	1	35.0053817	15.0020044	0	0	2	1.03757	145.4265	230	2	1.1	0.9;
	162	1	84.2622358	23.791065	0	0	2	0.98618	155.6864	230	2	1.1	0.9;
	163	1	0	0.39557334	0	0	2	1.0309	138.417	230	2	1.1	0.9;
	164	1	0	0	0	-211.99	2	0.97949	146.1909	230	2	1.1	0.9;
	165	1	0	0	0	0	2	0.99619	163.9758	230	2	1.1	0.9;
	166	1	0	0	0	-103	2	0.9947	168.1167	230	2	1.1	0.9;
	167	1	284.679063	90.8402569	0	0	2	0.92819	131.4	230	2	1.1	0.9;
	168	1	0	0	0	0	2	0.96215	132.6097	230	2	1.1	0.9;
	169	1	0	0	0	0	2	0.94845	130.1324	230	2	1.1	0.9;
	170	1	480.702102	99.7695442	0	0	2	0.91289	144.6821	115	2	1.1	0.9;
	171	1	734.301808	279.924121	0	0	2	0.95154	126.4576	115	2	1.1	0.9;
	172	1	26.3825183	0	0	0	2	1.02179	132.3403	115	2	1.1	0.9;
	173	1	161.456474	42.462022	0	53	2	0.97706	128.375	115	2	1.1	0.9;
	174	1	0	0	0	0	2	1.05878	136.2071	115	2	1.1	0.9;
	175	1	173.813019	81.9666139	0	0	2	0.97039	135.8402	115	2	1.1	0.9;
	176	1	4.9981333	3.99938099	0	0	2	1.05195	149.1098	115	2	1.1	0.9;
	177	1	27.9819583	11.991979	0	0	2	1.00724	145.3049	115	2	1.1	0.9;
	178	1	425.566303	172.850856	0	0	2	0.94742	137.8578	115	2	1.1	0.9;
	179	1	73.4242777	28.7725848	0	45	2	0.98204	135.1026	115	2	1.1	0.9;
	180	1	69.2201388	49.1003708	0	0	2	0.98292	140.8456	115	2	1.1	0.9;
	181	1	72.6464082	0	0	0	2	1.04019	132.8828	230	2	1.1	0.9;
	182	1	238.690986	88.2549258	0	0	2	1.03715	132.5136	230	2	1.1	0.9;
	183	1	40.0340795	4.00291593	0	0	2	0.9911	143.4818	115	2	1.1	0.9;
	184	1	134.85729	16.3644324	0	0	2	1.02791	128.335	230	2	1.1	0.9;
	185	1	0	0	0	0	2	1.05132	130.9921	230	2	1.1	0.9;
	186	1	59.6574213	24.2408338	0	0	2	1.063	136.7817	230	2	1.1	0.9;
	187	1	59.3412395	24.1129806	0	0	2	1.05916	135.7758	230	2	1.1	0.9;
	188	1	181.008615	43.219406	0	0	2	1.0435	133.5699	230	2	1.1	0.9;
	189	1	7.01197612	2.00385631	0	0	3	1.00836	141.8676	66	3	1.1	0.9;
	190	1	0	0	0	-149.99	3	1.05504	150.0446	345	3	1.1	0.9;
	191	1	488.579419	52.9530453	0	0	3	1.04218	-169.9607	230	3	1.1	0.9;
	192	1	784.812378	70.6310881	0	0	3	0.927	165.1502	230	3	1.1	0.9;
	193	1	0	0	0	0	3	1.01234	141.2374	66	3	1.1	0.9;
	194	1	0	0	0	0	3	1.0541	148.7818	345	3	1.1	0.9;
	195	1	0	0	0	0	3	1.04106	147.2615	345	3	1.1	0.9;
	196	1	9.98070636	2.994597	0	0	3	0.9785	142.5042	115	3	1.1	0.9;
	197	1	42.9871721	13.9964478	0	0	3	0.99656	144.2998	115	3	1.1	0.9;
	198	1	63.9917708	20.9973076	0	0	3	1.01484	147.7756	115	3	1.1	0.9;
	199	1	35.0043059	12.0008333	0	0	3	0.95788	142.3878	115	3	1.1	0.9;
	200	1	27.0686245	12.0309186	0	0	3	0.96107	142.7736	115	3	1.1	0.9;
	201	1	41.0764047	14.0260125	0	50	1	1.05021	138.4703	66	1	1.1	0.9;
	202	1	38.0033308	13.0007726	0	0	3	0.99601	142.6592	66	3	1.1	0.9;
	203	1	42.0034499	14.0011519	0	0	3	1.00591	145.8177	115	3	1.1	0.9;
	204	1	72.1173692	24.0380975	0	0	3	1.01089	141.4325	66	3	1.1	0.9;
	205	1	0	-5.00313315	0	0	3	1.01248	140.9911	66	3	1.1	0.9;
	206	1	11.8286857	1.97178178	0	0	3	1.00504	137.2024	66	3	1.1	0.9;
	207	1	-20.5199512	-13.8754353	0	0	1	1.01087	136.0136	66	1	1.1	0.9;
	208	1	7.00851708	2.00272034	0	0	3	1.00832	140.9626	66	3	1.1	0.9;
	209	1	38.1028565	13.0350285	0	0	3	1.0089	142.2928	66	3	1.1	0.9;
	210	1	0	0	0	0	3	0.9834	144.0014	115	3	1.1	0.9;
	211	1	96.0695736	7.00538918	0	0	3	1.00802	144.6177	115	3	1.1	0.9;
	212	1	0	0	0	0	3	1.01862	145.6704	138	3	1.1	0.9;
	213	1	0	0	0	0	3	1.00977	159.0195	16.5	3	1.1	0.9;
	214	1	21.9901968	15.9931387	0	0	3	0.99176	152.8195	138	3	1.1	0.9;
	215	1	46.9997131	25.9990109	0	0	3	0.98732	149.8091	138	3	1.1	0.9;
	216	1	176.077345	105.043855	0	0	3	0.97558	147.7066	138	3	1.1	0.9;
	217	1	100.006146	75.0027919	0	0	3	1.02064	148.3977	138	3	1.1	0.9;
	218	1	130.973641	95.9777847	0	0	3	1.00655	148.0817	138	3	1.1	0.9;
	219	1	0	0	0	0	3	1.05423	149.181	345	3	1.1	0.9;
	220	1	284.83779	99.9403996	0	0	3	1.00757	149.6735	138	3	1.1	0.9;
	221	1	170.915569	69.9627499	0	0	3	0.99955	149.4362	138	3	1.1	0.9;
...
];

%% generator data
%	bus	Pg	Qg	Qmax	Qmin	Vg	mBase	status	Pmax	Pmin	Pc1	Pc2	Qc1min	Qc1max	Qc2min	Qc2max	ramp_agc	ramp_10	ramp_30	ramp_q	apf	mu_Pmax	mu_Pmin	mu_Qmax	mu_Qmin
mpc.gen = [
	10000	-4.24	10	10	-10	1.01571	25	1	-5	-5	0	0	0	0	0	0	0	0	0	0	0	0.0000	0.0000	0.0000	0.0000;
	10001	-4.224	20	20	-20	1.01724	25	1	-5	-5	0	0	0	0	0	0	0	0	0	0	0	0.0000	0.0000	0.0000	0.0000;
	10002	-9.181	20	20	-20	0.99841	27	1	-10	-10	0	0	0	0	0	0	0	0	0	0	0	0.0000	0.0000	0.0000	0.0000;
	10003	0.907	24.115	25	-25	0.96005	30	1	100	0	0	0	0	0	0	0	0	0	0	0	0	0.0000	0.0000	0.0000	0.0000;
	10004	1.256	12	35	12	0.98059	42	1	100	0	0	0	0	0	0	0	0	0	0	0	0	0.0000	0.0000	0.0000	0.0000;
	10005	400.499	90.11	240	-240	1.02496	835	1	475	0	0	0	0	0	0	0	0	0	0	0	0	0.0000	0.0000	0.0000	0.0000;
	10006	163.362	39.298	96	-11	1.05272	270	1	255	0	0	0	0	0	0	0	0	0	0	0	0	0.0000	0.0000	0.0000	0.0000;
	10007	302.682	26.995	153	-153	1.05195	410	1	390	0	0	0	0	0	0	0	0	0	0	0	0	0.0000	0.0000	0.0000	0.0000;
	10008	71.848	-13.88	56	-30	0.99987	125	1	168	0	0	0	0	0	0	0	0	0	0	0	0	0.0000	0.0000	0.0000	0.0000;
	10009	125.324	7.746	77	-24	0.99071	270	1	217	0	0	0	0	0	0	0	0	0	0	0	0	0.0000	0.0000	0.0000	0.0000;
	10010	0	0	1500	-500	1.0435	2845	0	2030	0	0	0	0	0	0	0	0	0	0	0	0	0.0000	0.0000	0.0000	0.0000;
	10011	253.04	64.34	120	-60	0.99854	410	1	340	0	0	0	0	0	0	0	0	0	0	0	0	0.0000	0.0000	0.0000	0.0000;
	10012	7.534	200	200	-25	0.98088	240	1	100	0	0	0	0	0	0	0	0	0	0	0	0	0.0000	0.0000	0.0000	0.0000;
	10013	-888.047	350	350	-125	1.05233	1187	1	-925.03	-925.03	0	0	0	0	0	0	0	0	0	0	0	0.0000	0.0000	0.0000	0.0000;
	10014	293.889	75	75	-50	1.05066	410	1	381	0	0	0	0	0	0	0	0	0	0	0	0	0.0000	0.0000	0.0000	0.0000;
	10015	724.548	15.174	300	-100	1.04357	911	1	796	0	0	0	0	0	0	0	0	0	0	0	0	0.0000	0.0000	0.0000	0.0000;
	10016	87.901	35	35	-15	1.05307	125	1	184	0	0	0	0	0	0	0	0	0	0	0	0	0.0000	0.0000	0.0000	0.0000;
	10017	229.844	-41.088	100	-50	1.0526	410	1	317	0	0	0	0	0	0	0	0	0	0	0	0	0.0000	0.0000	0.0000	0.0000;
	10018	111.422	48.209	50	-25	1.07272	270	1	203	0	0	0	0	0	0	0	0	0	0	0	0	0.0000	0.0000	0.0000	0.0000;
	10019	398.356	-16.628	175	-50	1.05666	835	1	472	0	0	0	0	0	0	0	0	0	0	0	0	0.0000	0.0000	0.0000	0.0000;
	10020	228.91	-50	90	-50	1.04506	410	1	316	0	0	0	0	0	0	0	0	0	0	0	0	0.0000	0.0000	0.0000	0.0000;
	10021	0.774	4.332	15	-10	0.96778	25	1	100	0	0	0	0	0	0	0	0	0	0	0	0	0.0000	0.0000	0.0000	0.0000;
	10022	217.945	42.07	90	-40	1.00424	410	1	305	0	0	0	0	0	0	0	0	0	0	0	0	0.0000	0.0000	0.0000	0.0000;
	10023	5.517	150	150	-50	0.95501	180	1	100	0	0	0	0	0	0	0	0	0	0	0	0	0.0000	0.0000	0.0000	0.0000;
	10024	240.822	42.811	90	-45	1.05199	410	1	328	0	0	0	0	0	0	0	0	0	0	0	0	0.0000	0.0000	0.0000	0.0000;
	10025	92.422	23.082	35	-15	1.00727	270	1	184	0	0	0	0	0	0	0	0	0	0	0	0	0.0000	0.0000	0.0000	0.0000;
	10026	212.985	74.457	80	-50	1.0514	410	1	300	0	0	0	0	0	0	0	0	0	0	0	0	0.0000	0.0000	0.0000	0.0000;
	10027	1247.126	400	400	-100	1.06452	1491	1	1300	0	0	0	0	0	0	0	0	0	0	0	0	0.0000	0.0000	0.0000	0.0000;
	10028	1247.935	400	400	-100	1.06441	1517	1	1300	0	0	0	0	0	0	0	0	0	0	0	0	0.0000	0.0000	0.0000	0.0000;
	10029	500.363	24.869	300	-300	1.05507	835	1	575	0	0	0	0	0	0	0	0	0	0	0	0	0.0000	0.0000	0.0000	0.0000;
	10030	2048.785	767.374	1000	-1000	1.04299	2510	1	2073	0	0	0	0	0	0	0	0	0	0	0	0	0.0000	0.0000	0.0000	0.0000;
	10031	449.44	63.746	260	-260	1.01491	835	1	524	0	0	0	0	0	0	0	0	0	0	0	0	0.0000	0.0000	0.0000	0.0000;
	10032	287.521	44.456	150	-150	1.00982	512	1	372	0	0	0	0	0	0	0	0	0	0	0	0	0.0000	0.0000	0.0000	0.0000;
	10033	108.185	41.6	60	-60	1.00762	270	1	200	0	0	0	0	0	0	0	0	0	0	0	0	0.0000	0.0000	0.0000	0.0000;
	10034	475.369	132.712	320	-320	0.9997	835	1	550	0	0	0	0	0	0	0	0	0	0	0	0	0.0000	0.0000	0.0000	0.0000;
	10035	262.47	182.05	300	-300	1.04991	410	1	350	0	0	0	0	0	0	0	0	0	0	0	0	0.0000	0.0000	0.0000	0.0000;
	10036	318.529	274.171	300	-300	0.99992	512	1	403	0	0	0	0	0	0	0	0	0	0	0	0	0.0000	0.0000	0.0000	0.0000;
	10037	370.313	48.2	250	-250	1.03987	835	1	445	0	0	0	0	0	0	0	0	0	0	0	0	0.0000	0.0000	0.0000	0.0000;
	10038	315.517	143.521	500	-500	0.99988	512	1	400	0	0	0	0	0	0	0	0	0	0	0	0	0.0000	0.0000	0.0000	0.0000;
	10039	627.721	300	300	-300	1.01561	911	1	700	0	0	0	0	0	0	0	0	0	0	0	0	0.0000	0.0000	0.0000	0.0000;
	10040	262.453	165.648	200	-200	1.00985	410	1	350	0	0	0	0	0	0	0	0	0	0	0	0	0.0000	0.0000	0.0000	0.0000;
	10041	577.696	72.13	400	-400	1.00003	911	1	650	0	0	0	0	0	0	0	0	0	0	0	0	0.0000	0.0000	0.0000	0.0000;
	10042	602.52	-21.012	600	-600	1.05002	911	1	675.4	0	0	0	0	0	0	0	0	0	0	0	0	0.0000	0.0000	0.0000	0.0000;
	10043	182.451	50.14	100	40	0.99287	410	1	270	0	0	0	0	0	0	0	0	0	0	0	0	0.0000	0.0000	0.0000	0.0000;
	10044	92.188	50.768	80	40	1.00972	270	1	184	0	0	0	0	0	0	0	0	0	0	0	0	0.0000	0.0000	0.0000	0.0000;
	10045	493.037	165.973	210	-210	1.05048	835	1	567	0	0	0	0	0	0	0	0	0	0	0	0	0.0000	0.0000	0.0000	0.0000;
	10046	651.459	121.791	280	-280	1.05076	911	1	723	0	0	0	0	0	0	0	0	0	0	0	0	0.0000	0.0000	0.0000	0.0000;
	10047	1258.096	420	420	-420	1.02913	1537	1	1310	0	0	0	0	0	0	0	0	0	0	0	0	0.0000	0.0000	0.0000	0.0000;
	10048	246.776	61.623	100	-100	1.01432	410	1	334	0	0	0	0	0	0	0	0	0	0	0	0	0.0000	0.0000	0.0000	0.0000;
	10049	398.014	222.798	224	-224	1.05052	835	1	472	0	0	0	0	0	0	0	0	0	0	0	0	0.0000	0.0000	0.0000	0.0000;
	10050	355.884	330.044	350	0	1.05029	835	1	430	0	0	0	0	0	0	0	0	0	0	0	0	0.0000	0.0000	0.0000	0.0000;
	10051	197.761	9.483	120	0	1.05059	410	1	285	0	0	0	0	0	0	0	0	0	0	0	0	0.0000	0.0000	0.0000	0.0000;
	10052	435.991	115.523	224	-224	1.02886	835	1	510	0	0	0	0	0	0	0	0	0	0	0	0	0.0000	0.0000	0.0000	0.0000;
	10053	525.779	132.909	200	-200	1.0501	835	1	600	0	0	0	0	0	0	0	0	0	0	0	0	0.0000	0.0000	0.0000	0.0000;
	10054	40.85	32.718	42	0	1.01435	125	1	137	0	0	0	0	0	0	0	0	0	0	0	0	0.0000	0.0000	0.0000	0.0000;
	10055	485.139	0	0	0	1.05066	835	1	2399	0	0	0	0	0	0	0	0	0	0	0	0	0.0000	0.0000	0.0000	0.0000;
	10056	48.846	22.813	25	0	0.99666	125	1	145	0	0	0	0	0	0	0	0	0	0	0	0	0.0000	0.0000	0.0000	0.0000;
	10057	177.646	86.387	90	-90	1.02117	410	1	265	0	0	0	0	0	0	0	0	0	0	0	0	0.0000	0.0000	0.0000	0.0000;
	10058	425.794	123.562	150	-150	1.01437	835	1	500	0	0	0	0	0	0	0	0	0	0	0	0	0.0000	0.0000	0.0000	0.0000;
	10059	425.822	142.049	150	0	1.00162	835	1	500	0	0	0	0	0	0	0	0	0	0	0	0	0.0000	0.0000	0.0000	0.0000;
	10060	124.246	0	87	0	0.99764	270	1	216	0	0	0	0	0	0	0	0	0	0	0	0	0.0000	0.0000	0.0000	0.0000;
	10061	1342.662	487.817	600	-100	1.04987	1611	1	1392	0	0	0	0	0	0	0	0	0	0	0	0	0.0000	0.0000	0.0000	0.0000;
	10062	728.719	312.495	325	-125	1.05027	911	1	800	0	0	0	0	0	0	0	0	0	0	0	0	0.0000	0.0000	0.0000	0.0000;
	10063	581.709	156.086	300	-200	1.01458	911	1	653	0	0	0	0	0	0	0	0	0	0	0	0	0.0000	0.0000	0.0000	0.0000;
	10064	-3.447	2	2	-2	0.99967	25	1	-4.2	-4.2	0	0	0	0	0	0	0	0	0	0	0	0.0000	0.0000	0.0000	0.0000;
	10065	-31.965	14.383	17.35	-17.35	0.99991	125	1	-35.81	-35.81	0	0	0	0	0	0	0	0	0	0	0	0.0000	0.0000	0.0000	0.0000;
	10066	-22.635	10.387	12.83	-12.8	0.99993	125	1	-26.48	-26.48	0	0	0	0	0	0	0	0	0	0	0	0.0000	0.0000	0.0000	0.0000;
	10067	53.852	19.246	38	-38	0.99998	125	1	150	0	0	0	0	0	0	0	0	0	0	0	0	0.0000	0.0000	0.0000	0.0000;
	10068	8.756	3.835	6	-6	1.00226	25	1	108	0	0	0	0	0	0	0	0	0	0	0	0	0.0000	0.0000	0.0000	0.0000;
];

%% branch data
%	fbus	tbus	r	x	b	rateA	rateB	rateC	ratio	angle	status	angmin	angmax
mpc.branch = [
	1	5	0.001	0.00600029	0	756.99	984.08	984.09	0	0	1	-360	360;
	2	6	0.001	0.00900043	0	294.9	383.38	383.37	0	0	1	-360	360;
	2	8	0.006	0.0270013	0.054	672.44	874.17	874.17	0	0	1	-360	360;
	3	7	0	0.00300014	0	543.03	705.94	705.94	0	0	1	-360	360;
	3	19	0.008	0.0690033	0.13901	400.15	520.2	520.2	0	0	1	-360	360;
	3	150	0.001	0.00700034	0	706.7	918.71	918.71	0	0	1	-360	360;
	4	16	0.002	0.0190009	1.12705	1200.04	1560.05	1560.05	0	0	1	-360	360;
	5	9	0.006	0.0290014	0.018	193.71	251.82	251.82	0	0	1	-360	360;
	7	12	0.001	0.00900043	0.07	362.29	470.98	470.98	0	0	1	-360	360;
	7	131	0.001	0.00700034	0.014	614.65	799.04	799.05	0	0	1	-360	360;
	8	11	0.013	0.0595029	0.033	262.38	341.09	341.09	0	0	1	-360	360;
	8	14	0.013	0.042002	0.081	559.22	726.99	726.99	0	0	1	-360	360;
	9	11	0.006	0.0270013	0.013	162.09	210.72	210.72	0	0	1	-360	360;
	11	13	0.008	0.0340016	0.018	480.36	624.46	624.47	0	0	1	-360	360;
	12	21	0.002	0.0150007	0.11801	794.77	1033.2	1033.2	0	0	1	-360	360;
	13	20	0.006	0.0340016	0.016	303.42	394.44	394.45	0	0	1	-360	360;
	14	15	0.014	0.042002	0.097	696.53	905.49	905.49	0	0	1	-360	360;
	15	37	0.065	0.248012	0.12101	146.69	190.7	190.7	0	0	1	-360	360;
	15	89	0.099	0.248012	0.035	85.59	111.26	111.27	0	0	1	-360	360;
	15	90	0.096	0.363017	0.048	85.35	110.95	110.96	0	0	1	-360	360;
	16	42	0.002	0.0220011	1.28006	808.78	1051.41	1051.41	0	0	1	-360	360;
	19	21	0.002	0.0180009	0.036	258.39	335.91	335.91	0	0	1	-360	360;
	19	87	0.013	0.0800038	0.15101	376.94	490.02	490.02	0	0	1	-360	360;
	20	22	0.016	0.0330016	0.015	241.98	314.57	314.57	0	0	1	-360	360;
	20	27	0.069	0.186009	0.098	323.54	420.61	420.6	0	0	1	-360	360;
	21	24	0.004	0.0340016	0.28001	373.69	485.8	485.8	0	0	1	-360	360;
	22	23	0.052	0.111005	0.05	388.72	505.33	505.34	0	0	1	-360	360;
	23	25	0.019	0.0390019	0.018	231.91	301.49	301.48	0	0	1	-360	360;
	24	319	0.007	0.0680033	0.13401	208.98	271.67	271.67	0	0	1	-360	360;
	25	26	0.036	0.0710034	0.034	143.6	186.68	186.68	0	0	1	-360	360;
	26	27	0.045	0.120006	0.065	82.26	106.94	106.94	0	0	1	-360	360;
	26	320	0.043	0.130006	0.014	30	39	39	0	0	1	-360	360;
	33	38	0.0025	0.0120006	0.013	164.63	214.01	214.02	0	0	1	-360	360;
	33	40	0.006	0.0290014	0.02	81.79	106.32	106.33	0	0	1	-360	360;
	33	41	0.007	0.0430021	0.026	134.83	175.28	175.28	0	0	1	-360	360;
	34	42	0.001	0.00800038	0.042	202.68	263.49	263.48	0	0	1	-360	360;
	35	72	0.012	0.0600029	0.008	133.07	173	172.99	0	0	1	-360	360;
	35	76	0.006	0.0140007	0.002	185.71	241.42	241.42	0	0	1	-360	360;
	35	77	0.01	0.0290014	0.003	77.27	100.46	100.45	0	0	1	-360	360;
	36	88	0.004	0.0270013	0.043	357.03	464.15	464.14	0	0	1	-360	360;
	37	38	0.008	0.0470023	0.008	145.12	188.66	188.66	0	0	1	-360	360;
	37	40	0.022	0.0640031	0.007	73.35	95.35	95.35	0	0	1	-360	360;
	37	41	0.01	0.0360017	0.02	200.13	260.17	260.17	0	0	1	-360	360;
	37	49	0.017	0.0810039	0.048	359.55	467.41	467.41	0	0	1	-360	360;
	37	89	0.102	0.254012	0.033	57.65	74.94	74.94	0	0	1	-360	360;
	37	90	0.047	0.127006	0.016	96.75	125.77	125.78	0	0	1	-360	360;
	38	41	0.008	0.0370018	0.02	209.19	271.95	271.95	0	0	1	-360	360;
	38	43	0.032	0.0870042	0.04	141.56	184.03	184.03	0	0	1	-360	360;
	39	42	0.0006	0.00640031	0.40402	809.05	1051.77	1051.77	0	0	1	-360	360;
	40	48	0.026	0.154007	0.022	73.02	94.92	94.93	0	0	1	-360	360;
	41	49	0.065	0.191009	0.02	134.34	174.64	174.64	0	0	1	-360	360;
	41	51	0.031	0.0890043	0.036	172.48	224.22	224.22	0	0	1	-360	360;
	42	46	0.002	0.0140007	0.80604	1176.14	1528.99	1528.98	0	0	1	-360	360;
	43	44	0.026	0.0720034	0.035	131.89	171.46	171.46	0	0	1	-360	360;
	43	48	0.095	0.262013	0.032	30	39	39	0	0	1	-360	360;
	43	53	0.013	0.0390019	0.016	71.18	92.53	92.53	0	0	1	-360	360;
	44	47	0.027	0.084004	0.039	218.06	283.47	283.48	0	0	1	-360	360;
	44	54	0.028	0.084004	0.037	102.49	133.24	133.24	0	0	1	-360	360;
	45	60	0.007	0.041002	0.31201	336.41	437.34	437.33	0	0	1	-360	360;
	45	74	0.009	0.0540026	0.41102	731.95	951.54	951.54	0	0	1	-360	360;
	46	81	0.005	0.042002	0.69003	579.94	753.93	753.92	0	0	1	-360	360;
	47	73	0.052	0.145007	0.073	105.31	136.9	136.9	0	0	1	-360	360;
	47	113	0.043	0.118006	0.013	43.78	56.91	56.91	0	0	1	-360	360;
	48	107	0.025	0.062003	0.007	72.96	94.85	94.85	0	0	1	-360	360;
	49	51	0.031	0.0940045	0.043	174.26	226.54	226.54	0	0	1	-360	360;
	51	52	0.037	0.109005	0.049	114.87	149.33	149.33	0	0	1	-360	360;
	52	55	0.027	0.0800038	0.036	77.25	100.43	100.43	0	0	1	-360	360;
	53	54	0.025	0.0730035	0.035	91.85	119.4	119.4	0	0	1	-360	360;
	54	55	0.035	0.103005	0.047	119.98	155.97	155.97	0	0	1	-360	360;
	55	57	0.065	0.169008	0.082	143.84	186.99	186.99	0	0	1	-360	360;
	57	58	0.046	0.0800038	0.036	102.18	132.83	132.83	0	0	1	-360	360;
	57	63	0.159	0.537026	0.071	64.54	83.9	83.9	0	0	1	-360	360;
	58	59	0.009	0.0260012	0.005	99.4	129.22	129.22	0	0	1	-360	360;
	59	61	0.002	0.0130006	0.015	372.08	483.71	483.7	0	0	1	-360	360;
	60	62	0.009	0.0650031	0.48502	348.49	453.04	453.04	0	0	1	-360	360;
	62	64	0.016	0.105005	0.20301	343.83	446.98	446.98	0	0	1	-360	360;
	62	144	0.001	0.00700034	0.013	295.77	384.51	384.5	0	0	1	-360	360;
	63	526	0.0265	0.172008	0.026	249.29	324.08	324.08	0	0	1	-360	360;
	69	79	0.051	0.157008	0.023	82.14	106.78	106.78	0	0	1	-360	360;
	69	211	0.051	0.232011	0.028	40.7	52.91	52.91	0	0	1	-360	360;
	70	71	0.032	0.100005	0.062	168.96	219.64	219.65	0	0	1	-360	360;
	70	528	0.02	0.123406	0.028	60.27	78.36	78.35	0	0	1	-360	360;
	71	72	0.036	0.131006	0.068	285.83	371.58	371.58	0	0	1	-360	360;
	71	73	0.034	0.0990047	0.047	185.84	241.6	241.59	0	0	1	-360	360;
	72	77	0.018	0.0870042	0.011	95.99	124.78	124.79	0	0	1	-360	360;
	72	531	0.0256	0.193009	0	30	39	39	0	0	1	-360	360;
	73	76	0.021	0.0570027	0.03	190.07	247.09	247.09	0	0	1	-360	360;
	73	79	0.018	0.0520025	0.018	313.02	406.93	406.93	0	0	1	-360	360;
	74	88	0.004	0.0270013	0.05	339.61	441.49	441.49	0	0	1	-360	360;
	74	562	0.0286	0.20131	0.37902	106.91	138.98	138.98	0	0	1	-360	360;
	76	77	0.016	0.0430021	0.004	122.13	158.77	158.77	0	0	1	-360	360;
	77	78	0.001	0.00600029	0.007	495.03	643.54	643.54	0	0	1	-360	360;
	77	80	0.014	0.0700034	0.038	81.55	106.01	106.02	0	0	1	-360	360;
	77	552	0.0891	0.267613	0.029	30	39	39	0	0	1	-360	360;
	77	609	0.0782	0.21271	0.022	57.2	74.36	74.36	0	0	1	-360	360;
	78	79	0.006	0.0220011	0.011	409.58	532.46	532.45	0	0	1	-360	360;
	78	84	0	0.0360017	0	694.72	903.14	903.14	0	0	1	-360	360;
	79	211	0.099	0.375018	0.051	30	39	39	0	0	1	-360	360;
	80	211	0.022	0.107005	0.058	148.68	193.28	193.28	0	0	1	-360	360;
	81	194	0.0035	0.0330016	0.53003	357	464.1	464.1	0	0	1	-360	360;
	81	195	0.0035	0.0330016	0.53003	458.48	596.02	596.02	0	0	1	-360	360;
	85	86	0.008	0.0640031	0.12801	150.49	195.64	195.64	0	0	1	-360	360;
	86	87	0.012	0.0930045	0.18301	195.01	253.51	253.51	0	0	1	-360	360;
	86	323	0.006	0.0480023	0.092	51.8	67.34	67.34	0	0	1	-360	360;
	89	91	0.047	0.119006	0.014	126.88	164.95	164.94	0	0	1	-360	360;
	90	92	0.032	0.174008	0.024	108.02	140.43	140.43	0	0	1	-360	360;
	91	94	0.1	0.253012	0.031	91.27	118.65	118.65	0	0	1	-360	360;
	91	97	0.022	0.0770037	0.039	167.85	218.2	218.21	0	0	1	-360	360;
	92	103	0.019	0.144007	0.017	139	180.7	180.7	0	0	1	-360	360;
	92	105	0.017	0.0920044	0.012	218.68	284.28	284.28	0	0	1	-360	360;
	94	97	0.278	0.42702	0.043	58.28	75.77	75.76	0	0	1	-360	360;
	97	100	0.022	0.0530025	0.007	68.12	88.55	88.56	0	0	1	-360	360;
	97	102	0.038	0.0920044	0.012	73.49	95.54	95.54	0	0	1	-360	360;
	97	103	0.048	0.122006	0.015	74.42	96.75	96.75	0	0	1	-360	360;
	98	100	0.024	0.0640031	0.007	62.32	81.01	81.02	0	0	1	-360	360;
	98	102	0.034	0.121006	0.015	30	39	39	0	0	1	-360	360;
	99	107	0.053	0.135006	0.017	82.88	107.74	107.74	0	0	1	-360	360;
	99	108	0.002	0.00400019	0.002	118.84	154.49	154.49	0	0	1	-360	360;
	99	109	0.045	0.354017	0.044	55.01	71.52	71.51	0	0	1	-360	360;
	99	110	0.05	0.174008	0.022	77.58	100.86	100.85	0	0	1	-360	360;
	100	102	0.016	0.0380018	0.004	70.35	91.46	91.46	0	0	1	-360	360;
	102	104	0.043	0.0640031	0.027	91.09	118.41	118.42	0	0	1	-360	360;
	103	105	0.019	0.062003	0.008	160.84	209.09	209.09	0	0	1	-360	360;
	104	108	0.076	0.130006	0.044	67.92	88.29	88.3	0	0	1	-360	360;
	104	322	0.044	0.124006	0.015	30	39	39	0	0	1	-360	360;
	105	107	0.012	0.0880042	0.011	131.08	170.4	170.4	0	0	1	-360	360;
	105	110	0.157	0.400019	0.047	76.81	99.86	99.85	0	0	1	-360	360;
	108	324	0.074	0.20801	0.026	48.88	63.54	63.54	0	0	1	-360	360;
	109	110	0.07	0.184009	0.021	30	39	39	0	0	1	-360	360;
	109	113	0.1	0.274013	0.031	30	39	39	0	0	1	-360	360;
	109	114	0.109	0.393019	0.036	30	39	39	0	0	1	-360	360;
	110	112	0.142	0.404019	0.05	30	39	39	0	0	1	-360	360;
	112	114	0.017	0.042002	0.006	30	39	39	0	0	1	-360	360;
	115	122	0.0036	0.0199	0.004	637.85	829.2	829.2	0	0	0	-360	360;
	116	120	0.002	0.1049	0.001	542.52	705.27	705.28	0	0	0	-360	360;
	117	118	0.0001	0.0018	0.017	1895.76	2464.49	2464.49	0	0	0	-360	360;
	118	119	0	0.0271	0	1894.4	2462.73	2462.72	0	0	0	-360	360;
	118	121	0.0022	0.2915	0	96.42	125.35	125.35	0	0	0	-360	360;
	118	1201	0	0.6163	0	76.05	98.86	98.87	0	0	0	-360	360;
	119	120	0	0.0339	0	320.7	416.91	416.91	0	0	0	-360	360;
	119	121	0	0.0582	0	1255.96	1632.75	1632.75	0	0	0	-360	360;
	120	1201	0	-0.0697	0	73.75	95.88	95.88	0	0	0	-360	360;
	122	123	0.0808	0.234411	0.029	121.3	157.69	157.69	0	0	1	-360	360;
	122	125	0.0965	0.366918	0.054	121.65	158.15	158.15	0	0	1	-360	360;
	123	124	0.036	0.107605	0.11701	321.54	418	418	0	0	1	-360	360;
	123	125	0.0476	0.141407	0.14901	221.65	288.14	288.14	0	0	1	-360	360;
	125	126	0.0006	0.0197009	0	696.33	905.23	905.23	0	0	1	-360	360;
	127	128	0.0059	0.0577028	0.095	195.24	253.82	253.81	0	0	1	-360	360;
	127	134	0.0049	0.0336016	0.20801	221.17	287.52	287.52	0	0	1	-360	360;
	127	168	0.0059	0.0577028	0.095	233.97	304.16	304.16	0	0	1	-360	360;
	128	130	0.0078	0.0773037	0.12601	464.96	604.45	604.45	0	0	1	-360	360;
	128	133	0.0026	0.0193009	0.03	359.5	467.35	467.35	0	0	1	-360	360;
	129	130	0.0076	0.0752036	0.12201	378.09	491.51	491.52	0	0	1	-360	360;
	129	133	0.0021	0.0186009	0.03	515.04	669.55	669.55	0	0	1	-360	360;
	130	132	0.0016	0.0164008	0.026	358.15	465.59	465.6	0	0	1	-360	360;
	130	151	0.0017	0.0165008	0.026	262.02	340.62	340.63	0	0	1	-360	360;
	130	167	0.0079	0.0793038	0.12701	512.99	666.89	666.89	0	0	1	-360	360;
	130	168	0.0078	0.0784038	0.12501	412.96	536.85	536.85	0	0	1	-360	360;
	133	137	0.0017	0.0117006	0.28901	691.78	899.32	899.31	0	0	1	-360	360;
	133	168	0.0026	0.0193009	0.03	313.8	407.94	407.94	0	0	1	-360	360;
	133	169	0.0021	0.0186009	0.03	184.72	240.13	240.14	0	0	1	-360	360;
	134	135	0.0043	0.0293014	0.18001	228.68	297.28	297.28	0	0	1	-360	360;
	134	184	0.0039	0.0381018	0.25801	165.71	215.43	215.42	0	0	1	-360	360;
	135	136	0.0091	0.062303	0.38502	278.05	361.47	361.46	0	0	1	-360	360;
	136	137	0.0125	0.0890043	0.54003	369.45	480.29	480.29	0	0	1	-360	360;
	136	152	0.0056	0.0390019	0.95305	672.87	874.73	874.73	0	0	1	-360	360;
	137	140	0.0015	0.0114005	0.28401	519.3	675.08	675.09	0	0	1	-360	360;
	137	181	0.0005	0.00340016	0.021	1044.25	1357.53	1357.53	0	0	1	-360	360;
	137	186	0.0007	0.0151007	0.12601	1651.31	2146.71	2146.7	0	0	1	-360	360;
	137	188	0.0005	0.00340016	0.021	737.11	958.25	958.24	0	0	1	-360	360;
	138	181	0.0004	0.020201	0	1489.09	1935.82	1935.82	0	0	1	-360	360;
	138	188	0.0004	0.020201	0	1766.78	2296.81	2296.81	0	0	1	-360	360;
	139	172	0.0562	0.224811	0.081	139.29	181.08	181.08	0	0	1	-360	360;
	140	141	0.012	0.083604	0.12301	139.41	181.23	181.23	0	0	1	-360	360;
	140	142	0.0152	0.113205	0.68403	185.06	240.58	240.58	0	0	1	-360	360;
	140	145	0.0468	0.336916	0.51902	90.55	117.71	117.72	0	0	1	-360	360;
	140	146	0.043	0.303115	0.46302	106.73	138.75	138.75	0	0	1	-360	360;
	140	147	0.0489	0.349217	0.53803	313.25	407.23	407.23	0	0	1	-360	360;
	140	182	0.0013	0.00890043	0.11901	260.68	338.88	338.88	0	0	1	-360	360;
	141	146	0.0291	0.226711	0.34202	89.84	116.79	116.79	0	0	1	-360	360;
	142	143	0.006	0.0570027	0.76704	381.09	495.41	495.42	0	0	1	-360	360;
	143	145	0.0075	0.0773037	0.11901	187.1	243.23	243.23	0	0	1	-360	360;
	143	149	0.0127	0.0909043	0.13501	133.01	172.91	172.91	0	0	1	-360	360;
	145	146	0.0085	0.0588028	0.087	239.45	311.28	311.29	0	0	1	-360	360;
	145	149	0.0218	0.151107	0.22301	156.93	204.01	204.01	0	0	1	-360	360;
	146	147	0.0073	0.0504024	0.074	269.74	350.67	350.66	0	0	1	-360	360;
	148	178	0.0523	0.152607	0.074	169.08	219.8	219.8	0	0	1	-360	360;
	148	179	0.1371	0.391919	0.076	96.94	126.03	126.02	0	0	1	-360	360;
	152	153	0.0137	0.0957046	0.14101	301.09	391.42	391.42	0	0	1	-360	360;
	153	161	0.0055	0.0288014	0.19001	233.97	304.16	304.16	0	0	1	-360	360;
	154	156	0.1746	0.316115	0.04	116.33	151.23	151.23	0	0	1	-360	360;
	154	183	0.0804	0.305415	0.045	189.53	246.39	246.39	0	0	1	-360	360;
	155	161	0.011	0.0568027	0.38802	275.91	358.68	358.68	0	0	1	-360	360;
	157	159	0.0008	0.0098	0.069	1236.3	1607.19	1607.19	0	0	0	-360	360;
	158	159	0.0029	0.0285	0.19	478.38	621.89	621.89	0	0	0	-360	360;
	158	160	0.0066	0.0448021	0.27701	190.95	248.24	248.24	0	0	1	-360	360;
	162	164	0.0024	0.0326016	0.23601	813.08	1057.01	1057	0	0	1	-360	360;
	162	165	0.0018	0.0245012	1.66208	880.76	1144.99	1144.99	0	0	1	-360	360;
	163	164	0.0044	0.0514025	3.59717	631.95	821.54	821.54	0	0	1	-360	360;
	165	166	0.0002	0.0123006	0	869.61	1130.49	1130.49	0	0	1	-360	360;
...
];

%% bus names
mpc.bus_name = {
	'1           ';
	'2           ';
	'3           ';
	'4           ';
	'5           ';
	'6           ';
	'7           ';
	'8           ';
	'9           ';
	'10          ';
	'11          ';
	'12          ';
	'13          ';
	'14          ';
	'15          ';
	'16          ';
	'17          ';
	'19          ';
	'20          ';
	'21          ';
	'22          ';
	'23          ';
	'24          ';
	'25          ';
	'26          ';
	'27          ';
	'33          ';
	'34          ';
	'35          ';
	'36          ';
	'37          ';
	'38          ';
	'39          ';
	'40          ';
	'41          ';
	'42          ';
	'43          ';
	'44          ';
	'45          ';
	'46          ';
	'47          ';
	'48          ';
	'49          ';
	'51          ';
	'52          ';
	'53          ';
	'54          ';
	'55          ';
	'57          ';
	'58          ';
	'59          ';
	'60          ';
	'61          ';
	'62          ';
	'63          ';
	'64          ';
	'69          ';
	'70          ';
	'71          ';
	'72          ';
	'73          ';
	'74          ';
	'76          ';
	'77          ';
	'78          ';
	'79          ';
	'80          ';
	'81          ';
	'84          ';
	'85          ';
	'86          ';
	'87          ';
	'88          ';
	'89          ';
	'90          ';
	'91          ';
	'92          ';
	'94          ';
	'97          ';
	'98          ';
	'99          ';
	'100         ';
	'102         ';
	'103         ';
	'104         ';
	'105         ';
	'107         ';
	'108         ';
	'109         ';
	'110         ';
	'112         ';
	'113         ';
	'114         ';
	'115         ';
	'116         ';
	'117         ';
	'118         ';
	'119         ';
	'120         ';
	'121         ';
	'122         ';
	'123         ';
	'124         ';
	'125         ';
	'126         ';
	'127         ';
	'128         ';
	'129         ';
	'130         ';
	'131         ';
	'132         ';
	'133         ';
	'134         ';
	'135         ';
	'136         ';
	'137         ';
	'138         ';
	'139         ';
	'140         ';
	'141         ';
	'142         ';
	'143         ';
	'144         ';
	'145         ';
	'146         ';
	'147         ';
	'148         ';
	'149         ';
	'150         ';
	'151         ';
	'152         ';
	'153         ';
	'154         ';
	'155         ';
	'156         ';
	'157         ';
	'158         ';
	'159         ';
	'160         ';
	'161         ';
	'162         ';
	'163         ';
	'164         ';
	'165         ';
	'166         ';
	'167         ';
	'168         ';
	'169         ';
	'170         ';
	'171         ';
	'172         ';
	'173         ';
	'174         ';
	'175         ';
	'176         ';
	'177         ';
	'178         ';
	'179         ';
	'180         ';
	'181         ';
	'182         ';
	'183         ';
	'184         ';
	'185         ';
	'186         ';
	'187         ';
	'188         ';
	'189         ';
	'190         ';
	'191         ';
	'192         ';
	'192         ';
	'194         ';
	'195         ';
	'196         ';
	'197         ';
	'198         ';
	'199         ';
	'200         ';
	'201         ';
	'202         ';
	'203         ';
	'204         ';
	'205         ';
	'206         ';
	'207         ';
	'208         ';
	'209         ';
	'210         ';
	'211         ';
	'212         ';
	'213         ';
	'214         ';
	'215         ';
	'216         ';
	'217         ';
	'218         ';
	'219         ';
	'220         ';
	'221         ';
...
};
